VERSION 18
*******************************************************************************
*** TRNSYS input file (deck) generated by TrnsysStudio
*** on Monday, May 06, 2024 at 20:54
*** from TrnsysStudio project: C:\Users\lange\Desktop\trnsys-plc algorithm-middleware - simver\src\main.tpf
*** 
*** If you edit this file, use the File/Import TRNSYS Input File function in 
*** TrnsysStudio to update the project. 
*** 
*** If you have problems, questions or suggestions please contact your local 
*** TRNSYS distributor or mailto:software@cstb.fr 
*** 
*******************************************************************************


*******************************************************************************
*** Units 
*******************************************************************************

*******************************************************************************
*** Control cards
*******************************************************************************
* START, STOP and STEP
CONSTANTS 3
START=0
STOP=8736
STEP=1/60
SIMULATION 	 START	 STOP	 STEP	! Start time	End time	Time step
TOLERANCES 0.001 0.001			! Integration	 Convergence
LIMITS 30 10000 30				! Max iterations	Max warnings	Trace limit
DFQ 1					! TRNSYS numerical integration solver method
WIDTH 80				! TRNSYS output file width, number of characters
LIST 					! NOLIST statement
					! MAP statement
SOLVER 0 1 1				! Solver statement	Minimum relaxation factor	Maximum relaxation factor
NAN_CHECK 0				! Nan DEBUG statement
OVERWRITE_CHECK 0			! Overwrite DEBUG statement
TIME_REPORT 0			! disable time report
EQSOLVER 0				! EQUATION SOLVER statement
* User defined CONSTANTS 
*$USER_CONSTANTS

*$USER_CONSTANTS_END


* Model "Weather" (Type 15)
* 

UNIT 15 TYPE 15	 Weather
*$UNIT_NAME Weather
*$MODEL .\Weather Data Reading and Processing\Standard Format\Meteonorm Files (TM2)\Type15-6.tmf
*$POSITION 81 713
*$LAYER Weather - Data Files # # 
PARAMETERS 24
6		! 1 File Type
30		! 2 Logical unit
3		! 3 Tilted Surface Radiation Mode
0.2		! 4 Ground reflectance - no snow
0.7		! 5 Ground reflectance - snow cover
6		! 6 Number of surfaces
1		! 7 Tracking mode-1
0		! 8 Slope of surface-1
AA_H_0_0		! 9 Azimuth of surface-1
1		! 10 Tracking mode-2
90		! 11 Slope of surface-2
AA_S_0_90		! 12 Azimuth of surface-2
1		! 13 Tracking mode-3
90		! 14 Slope of surface-3
AA_W_90_90		! 15 Azimuth of surface-3
1		! 16 Tracking mode-4
90		! 17 Slope of surface-4
AA_N_180_90		! 18 Azimuth of surface-4
1		! 19 Tracking mode-5
90		! 20 Slope of surface-5
AA_E_270_90		! 21 Azimuth of surface-5
1		! 22 Tracking mode-6
15		! 23 Slope of surface-6
0		! 24 Azimuth of surface-6
*** External files
ASSIGN "Weather\Prague_Libus-hour.tm2" 30
*|? Which file contains the Meteonorm weather data? |1000
*------------------------------------------------------------------------------

* Model "Type77" (Type 77)
* 

UNIT 77 TYPE 77	 Type77
*$UNIT_NAME Type77
*$MODEL .\Physical Phenomena\Simple Ground Temperature Model\Type77.tmf
*$POSITION 48 911
*$LAYER Main # # 
PARAMETERS 8
1		! 1 Number of temperature nodes
T_MEAN		! 2 Mean surface temperature
T_AMPLITUDE		! 3 Amplitude of surface temperature
t_T_MIN		! 4 Time shift
8.72		! 5 Soil thermal conductivity
3200.0		! 6 Soil density
0.84		! 7 Soil specific heat
h_depth		! 8 Depth at point 
*------------------------------------------------------------------------------

* Model "Type9c-DHWCalc" (Type 9)
* 

UNIT 40 TYPE 9	 Type9c-DHWCalc
*$UNIT_NAME Type9c-DHWCalc
*$MODEL .\Utility\Data Readers\Generic Data Files\Skip Lines to Start\Free Format\Type9c.tmf
*$POSITION 710 1138
*$LAYER Main # 
PARAMETERS 10
5		! 1 Mode
0		! 2 Header Lines to Skip
1		! 3 No. of values to read
0.25		! 4 Time interval of data
1		! 5 Interpolate or not
1.0		! 6 Multiplication factor
0		! 7 Addition factor
1		! 8 Average or instantaneous value
46		! 9 Logical unit for input file
-1		! 10 Free format mode
*** External files
ASSIGN "InputFiles\DHW0001_DHW.txt" 46
*|? Input file name |1000
*------------------------------------------------------------------------------

* Model "Type9c - ELapp" (Type 9)
* 

UNIT 61 TYPE 9	 Type9c - ELapp
*$UNIT_NAME Type9c - ELapp
*$MODEL .\Utility\Data Readers\Generic Data Files\Skip Lines to Start\Free Format\Type9c.tmf
*$POSITION 212 1381
*$LAYER Weather - Data Files # 
PARAMETERS 46
5		! 1 Mode
1		! 2 Header Lines to Skip
10		! 3 No. of values to read
0.083333		! 4 Time interval of data
1		! 5 Interpolate or not-1
1.0		! 6 Multiplication factor-1
0		! 7 Addition factor-1
1		! 8 Average or instantaneous value-1
1		! 9 Interpolate or not-2
1.0		! 10 Multiplication factor-2
0		! 11 Addition factor-2
1		! 12 Average or instantaneous value-2
1		! 13 Interpolate or not-3
1.0		! 14 Multiplication factor-3
0		! 15 Addition factor-3
1		! 16 Average or instantaneous value-3
1		! 17 Interpolate or not-4
1.0		! 18 Multiplication factor-4
0		! 19 Addition factor-4
1		! 20 Average or instantaneous value-4
1		! 21 Interpolate or not-5
1.0		! 22 Multiplication factor-5
0		! 23 Addition factor-5
1		! 24 Average or instantaneous value-5
1		! 25 Interpolate or not-6
1.0		! 26 Multiplication factor-6
0		! 27 Addition factor-6
1		! 28 Average or instantaneous value-6
1		! 29 Interpolate or not-7
1.0		! 30 Multiplication factor-7
0		! 31 Addition factor-7
1		! 32 Average or instantaneous value-7
1		! 33 Interpolate or not-8
1.0		! 34 Multiplication factor-8
0		! 35 Addition factor-8
1		! 36 Average or instantaneous value-8
1		! 37 Interpolate or not-9
1.0		! 38 Multiplication factor-9
0		! 39 Addition factor-9
1		! 40 Average or instantaneous value-9
1		! 41 Interpolate or not-10
0.8		! 42 Multiplication factor-10
0		! 43 Addition factor-10
1		! 44 Average or instantaneous value-10
82		! 45 Logical unit for input file
-1		! 46 Free format mode
*** External files
ASSIGN "InputFiles\EL_profiles5min.txt" 82
*|? Input file name |1000
*------------------------------------------------------------------------------

* EQUATIONS "SP"
* 
EQUATIONS 5
SP_Heating = 20
SP_DHW_Tank = 47
SP_DHW_out = 40
SP_Floor_mix = 40
SP_Room = 20
*$UNIT_NAME SP
*$LAYER Main
*$POSITION 1142 185
*$UNIT_NUMBER 75

*------------------------------------------------------------------------------


* Model "Occ" (Type 14)
* 

UNIT 82 TYPE 14	 Occ
*$UNIT_NAME Occ
*$MODEL .\Utility\Forcing Functions\Occupancy\Type14a.tmf
*$POSITION 1817 1041
*$LAYER Main # 
PARAMETERS 12
0		! 1 Initial value of time
1		! 2 Initial number of people
8		! 3 Time at point
1		! 4 Value at point
8		! 5 Time at point
0		! 6 Value at point
17		! 7 Time at point
0		! 8 Value at point
17		! 9 Time at point
1		! 10 Value at point
24		! 11 Time at point
1		! 12 Value at point
*------------------------------------------------------------------------------

* Model "Type25c-2" (Type 25)
* 

UNIT 41 TYPE 25	 Type25c-2
*$UNIT_NAME Type25c-2
*$MODEL .\Output\Printer\Unformatted\No Units\Type25c.tmf
*$POSITION 1895 1352
*$LAYER Main # 
PARAMETERS 10
STEP		! 1 Printing interval
START		! 2 Start time
STOP		! 3 Stop time
47		! 4 Logical unit
0		! 5 Units printing mode
0		! 6 Relative or absolute start time
-1		! 7 Overwrite or Append
-1		! 8 Print header
0		! 9 Delimiter
1		! 10 Print labels
INPUTS 65
52,12 		! Type402-2:operation mode of heat pump ->HPmode
0,0		! [unconnected] CTRL_ZV2
0,0		! [unconnected] Request_heating
0,0		! [unconnected] Request_DHW
0,0		! [unconnected] Request_cooling
Q_kj_h		! cal_bui:Q_kj_h ->Heating_load
0,0		! [unconnected] Cooling_load
53,7 		! Combi storage 1/2 (DHW):Average tank temperature ->Mean_temp_combi_st_DHW
54,7 		! Combi storage 2/2 (heat):Average tank temperature ->Mean_temp_combi_st_heat
33,1 		! V2:Temperature at outlet 1 ->Temperature_V1_outlet1
33,3 		! V2:Temperature at outlet 2 ->Temperature_V1_outlet2
35,1 		! V1-2:Temperature at outlet 1 ->Temperature_V2_outlet1
35,3 		! V1-2:Temperature at outlet 2 ->Temperature_V2_outlet2
51,1 		! V5:Outlet temperature ->Temperature_V5_outlet
52,3 		! Type402-2:condenser outlet temperature ->HP_outlet
T_AVG		! Trep:T_AVG ->Tint_avg
56,1 		! Building: 1- TAIR_S1NP ->Tint_S1NP
56,7 		! Building: 7- TAIR_N1NP ->Tint_N1NP
56,13 		! Building: 13- TAIR_S2NP ->Tint_S2NP
56,19 		! Building: 19- TAIR_N2NP ->Tint_N2NP
56,33 		! Building: 33- TOFL_S4 ->Tfloor_S1NP
56,45 		! Building: 45- TOFL_S22 ->Tfloor_N1NP
56,39 		! Building: 39- TOFL_S1 ->Tfloor_S2NP
56,51 		! Building: 51- TOFL_S20 ->Tfloor_N2NP
52,5 		! Type402-2:Mean condenser power over the timestep ->Q_SOURCE
54,16 		! Combi storage 2/2 (heat):HX heat transfer rate ->Q_DHW1
53,17 		! Combi storage 1/2 (DHW):HX delivered energy ->Q_DHW2
54,10 		! Combi storage 2/2 (heat):Energy delivered via port 2 ->Q_HT
34,2 		! HP Pump:Outlet flow rate ->M_SOURCE
33,4 		! V2:Flow rate at outlet 2 ->M_TANK_1
33,2 		! V2:Flow rate at outlet 1 ->M_TANK_2
49,2 		! Loads Pump:Outlet flow rate ->M_HT_LOAD
36,2 		! DHW:Outlet flow rate ->M_DHW
Kons_HP_sys_kJ_h		! El_consum:Kons_HP_sys_kJ_h ->P_HP
Kons_Other_kJ_h		! El_consum:Kons_Other_kJ_h ->P_Other
Kons_TOT_kJ_h		! El_consum:Kons_TOT_kJ_h ->P_TOT
FV_power_sum		! FV sum:FV_power_sum ->P_PV
52,10 		! Type402-2:coefficient of performance ->COP
SP_Heating		! [equation] SP_Heating
SP_DHW_Tank		! SP:SP_DHW_Tank ->SP_DHW_Tank
SP_DHW_out		! SP:SP_DHW_out ->SP_DHW_Out
SP_Floor_mix		! SP:SP_Floor_mix ->SP_Floor_mix
SP_Room		! SP:SP_Room ->SP_Room
15,1 		! Weather:Dry bulb temperature ->CTRL_ZV1
15,7 		! Weather:Percent relative humidity ->CTRL_ZV1
15,14 		! Weather:Global horizontal radiation (not interpolated) ->CTRL_ZV1
15,15 		! Weather:Direct normal radiation (not interpolated) ->CTRL_ZV1
15,22 		! Weather:Total diffuse radiation on the horizontal ->CTRL_ZV1
15,8 		! Weather:Wind velocity ->CTRL_ZV1
15,9 		! Weather:Wind direction ->CTRL_ZV1
53,21 		! Combi storage 1/2 (DHW):Temperature at thermostat-1 ->CTRL_ZV1
53,22 		! Combi storage 1/2 (DHW):Temperature at thermostat-2 ->CTRL_ZV1
53,23 		! Combi storage 1/2 (DHW):Temperature at thermostat-3 ->CTRL_ZV1
54,21 		! Combi storage 2/2 (heat):Temperature at thermostat-1 ->CTRL_ZV1
54,22 		! Combi storage 2/2 (heat):Temperature at thermostat-2 ->CTRL_ZV1
54,23 		! Combi storage 2/2 (heat):Temperature at thermostat-3 ->CTRL_ZV1
49,1 		! Loads Pump:Outlet fluid temperature ->CTRL_ZV1
TCcontrol		! HPcontrol:TCcontrol ->ctrl_RequestedHP
60,2 		! Type3157:VentilTV ->ctrl_valveDHW
60,3 		! Type3157:ObehoveCerpadloTC ->ctrl_pumpSource
60,4 		! Type3157:SmesovaciVentilPovelZavrit ->ctrl_mixing_closing
60,5 		! Type3157:SmesovaciVentilPovelOtevrit ->ctrl_mixing_openin
60,6 		! Type3157:ObehoveCerpadloOtopka ->ctrl_pumpDemand
60,7 		! Type3157:BivalentniZdroj ->ctrl_secondary_source
SignalConverted		! ValveControl:SignalConverted ->ctrl_mixing_analog
*** INITIAL INPUT VALUES
HPmode CTRL_ZV2 Request_heating Request_DHW Request_cooling Q_Heating_load
Q_Cooling_load Mean_temp_combi_st_DHW Mean_temp_combi_st_heat Temperature_V1_outlet1
Temperature_V1_outlet2 Temperature_V2_outlet1 Temperature_V2_outlet2
Temperature_V5_outlet HP_outlet Tint_room Tint_S1NP Tint_N1NP Tint_S2NP
Tint_N2NP Tfloor_S1NP Tfloor_N1NP Tfloor_S2NP Tfloor_N2NP Q_SOURCE
Q_DHW1 Q_DHW2 Q_HT M_SOURCE M_TANK_1 M_TANK_2 M_HT_LOAD M_DHW P_HP P_Other
P_TOT P_PV COP SP_Heating SP_DHW_Tank SP_DHW_Out SP_Floor_mix SP_Room
Outdoor_temp Outdoor_RH Outdoor_GHI Outdoor_BNI Outdoor_DNI Outdoor_Wvel
Outdoor_Wdir Tank_DHW_top Tank_DHW_mid Tank_DHW_bot Tank_HT_top Tank_HT_mid
Tank_HT_bot Tfloor_in ctrl_RequestedHP ctrl_valveDHW ctrl_pumpSource
ctrl_mixing_closing ctrl_mixing_openin ctrl_pumpDemand ctrl_secondary_source
ctrl_mixing_analog 
*** External files
ASSIGN "***.out" 47
*|? Output file for printed results |1000
*------------------------------------------------------------------------------

* Model "Type3157" (Type 3157)
* 

UNIT 60 TYPE 3157	 Type3157
*$UNIT_NAME Type3157
*$MODEL .\TRNLib\Calling Python (CFFI)\Type3157.tmf
*$POSITION 815 197
*$LAYER Main # 
PARAMETERS 4
0		! 1 Mode
17		! 2 Number of inputs
9		! 3 Number of outputs
2		! 4 Iteration Mode
INPUTS 17
T_AVG		! Trep:T_AVG ->ProstorovaTeplota
15,1 		! Weather:Dry bulb temperature ->VenkovniTeplota
53,33 		! Combi storage 1/2 (DHW):Tank nodal temperature-10 ->TeplotaTV
54,25 		! Combi storage 2/2 (heat):Tank nodal temperature-2 ->TeplotaAkuPodPlechem
49,1 		! Loads Pump:Outlet fluid temperature ->TeplotaOtopVodyDoOS
76,1 		! Type158-2:Temperature at outlet 1 ->VstupniTeplotaTC
84,1 		! Type158:Temperature at outlet 1 ->VystupniTeplotaTC
0,0		! [unconnected] VykonFazeL1
0,0		! [unconnected] VykonFazeL2
0,0		! [unconnected] VykonFazeL3
SP_Room		! SP:SP_Room ->PozadovanaTeplotaProstor
SP_DHW_Tank		! SP:SP_DHW_Tank ->PozadovanaTeplotaTV
0,0		! [unconnected] HDO
83,11 		! Type21:Hour of the day ->simTime
0,0		! [unconnected] is_sim_test
83,3 		! Type21:Simulation day ->simDay
0,0		! [unconnected] time
*** INITIAL INPUT VALUES
1 2 3 4 5 6 7 2 2 2 11 12 5 1 1 1 1 
LABELS 1
main.py
*------------------------------------------------------------------------------

* Model "Type402-2" (Type 402)
* 

UNIT 52 TYPE 402	 Type402-2
*$UNIT_NAME Type402-2
*$MODEL .\Nostand\Type402\Type402.TMF
*$POSITION 218 722
*$LAYER Main # 
PARAMETERS 17
1.006		! 1 specific heat of evaporator fluid
4.187		! 2 specific heat of condenser fluid
0		! 3 power of carter heating
-99		! 4 Set point of low-pressure thermostat (temperature)
99		! 5 Set point of high-pressure thermostat (temperature)
0		! 6 Flag for evaporator icing/defrosting
0		! 7 1st COP correction value on straight line of frost curve
0		! 8 2nd COP correction value on straight line of frost curve
0		! 9 Maximum COP correction on Gauss curve
0		! 10 Outside air temperature at 1st COP correction value
0		! 11 Outside air temperature at 2nd COP correction value
0		! 12 Outside air temperature at 3rd COP correction value
0		! 13 Outside air temperature at 4th COP correction value
0.083333		! 14 Heat-up constant, related to the mean operation power
0.083333		! 15 Cool-down constant
5		! 16 Max # changes of hp mode during a TRNSYS timestep
81		! 17 Logical unit # of file containing polynomial coeff of condenser and compressor power
INPUTS 7
15,1 		! Weather:Dry bulb temperature ->evaporator inlet temperature
0,0		! [unconnected] evaporator mass flowrate
76,1 		! Type158-2:Temperature at outlet 1 ->condenser inlet temperature
76,2 		! Type158-2:Flow rate at outlet 1 ->condenser mass flowrate
TCOnOff		! HPcontrol:TCOnOff ->control signal for heat pump
0,0		! [unconnected] control signal for carter heating
TCcontrol		! HPcontrol:TCcontrol ->Modulation Speed
*** INITIAL INPUT VALUES
0 3780 0 0 0 0 1 
*** External files
ASSIGN "InputFiles\Type402_PQ_3.dat" 81
*|? File with polynomial coefficents |1000
*------------------------------------------------------------------------------

* EQUATIONS "Radiation Unit Converter"
* 
EQUATIONS 23
AZEN = [15,16] ! [deg] solar zenith angle
AAZM = [15,17] ! [deg] solar azimuth angle
AAZM_TYPE56 = AAZM - (TURN) ! [deg] solar azimuth corrected by building rotation - Input for Type 56 sun position for SHM and ISM
AA_H_0_0 = 0 + TURN ! [deg] azimuth angle of orientation
AA_S_0_90 = 0 + TURN ! [deg] azimuth angle of orientation
AA_W_90_90 = 90 + TURN ! [deg] azimuth angle of orientation
AA_N_180_90 = 180 + TURN ! [deg] azimuth angle of orientation
AA_E_270_90 = 270 + TURN ! [deg] azimuth angle of orientation
IT_H_0_0 = [15,24]/3.6
IB_H_0_0 = [15,30]/3.6
AI_H_0_0 = [15,54]
IT_S_0_90 = [15,25]/3.6
IB_S_0_90 = [15,31]/3.6
AI_S_0_90 = [15,55]
IT_W_90_90 = [15,26]/3.6
IB_W_90_90 = [15,32]/3.6
AI_W_90_90 = [15,56]
IT_N_180_90 = [15,27]/3.6
IB_N_180_90 = [15,33]/3.6
AI_N_180_90 = [15,57]
IT_E_270_90 = [15,28]/3.6
IB_E_270_90 = [15,34]/3.6
AI_E_270_90 = [15,58]
*$UNIT_NAME Radiation Unit Converter
*$LAYER Main
*$POSITION 254 331
*$UNIT_NUMBER 2

*------------------------------------------------------------------------------


* Model "Inf" (Type 75)
* 

UNIT 16 TYPE 75	 Inf
*$UNIT_NAME Inf
*$MODEL .\Loads and Structures\Infiltration\Sherman Grimsrud\Humidity Ratio Inputs\Type75a.tmf
*$POSITION 2044 961
*$LAYER Main # 
PARAMETERS 4
1		! 1 Humidity Mode
672		! 2 Conditioned space volume
2		! 3 Number of building stories
3		! 4 Shielding class
INPUTS 10
T_AVG		! Trep:T_AVG ->Indoor air temperature
0,0		! [unconnected] Indoor humidity ratio - not used
0,0		! [unconnected] Indoor relative humidity
0,0		! [unconnected] Indoor air pressure
15,1 		! Weather:Dry bulb temperature ->Outdoor air temperature
15,6 		! Weather:Humidity ratio ->Outdoor humidity ratio
15,7 		! Weather:Percent relative humidity ->Outdoor relative humidity
0,0		! [unconnected] Outdoor air pressure
15,8 		! Weather:Wind velocity ->Wind speed
inf_opening		! win_opening-2:inf_opening ->Leakage area
*** INITIAL INPUT VALUES
20 0.001 50 1.0 10 0.001 50 1.0 2 250 
*------------------------------------------------------------------------------

* Model "vent" (Type 760)
* 

UNIT 28 TYPE 760	 vent
*$UNIT_NAME vent
*$MODEL .\HVAC Library (TESS)\Heat Exchangers\Air-to-Air Heat Exchanger\Sensible Only with Control Modes\Air-Air Heat Recovery\Type760.tmf
*$POSITION 1811 943
*$LAYER Main # 
*$# Air-to-Air Heat Recovery
PARAMETERS 3
2		! 1 Humidity Mode
671.1		! 2 Rated Power
0		! 3 Control Mode
INPUTS 15
T_AVG		! Trep:T_AVG ->Exhaust Air Temperature
0,0		! [unconnected] Exhaust Air Humidity Ratio
RH_AVG		! Trep:RH_AVG ->Exhaust Air % Relative Humidity
0,0		! [unconnected] Exhaust Air Flowrate
0,0		! [unconnected] Exhaust Air Pressure
0,0		! [unconnected] Exhaust Air Pressure Drop
15,1 		! Weather:Dry bulb temperature ->Fresh Air Temperature
0,0		! [unconnected] Fresh Air Humidity Ratio
15,7 		! Weather:Percent relative humidity ->Fresh Air % Relative Humidity
0,0		! [unconnected] Fresh Air Flowrate
0,0		! [unconnected] Fresh Air Pressure
0,0		! [unconnected] Fresh Air Pressure Drop
0,0		! [unconnected] Sensible Effectiveness
0,0		! [unconnected] On/Off Control Signal
0,0		! [unconnected] Control Temperature
*** INITIAL INPUT VALUES
20.0 0.005 60.0 100 1.0 0 20.0 0.005 50.0 100 1.0 0.0 0.7 1.0 18 
*------------------------------------------------------------------------------

* Model "Building" (Type 56)
* 

UNIT 56 TYPE 56	 Building
*$UNIT_NAME Building
*$MODEL .\Loads and Structures\Multi-Zone Building\Type56.tmf
*$POSITION 1848 814
*$LAYER Main # # 
*$#   
PARAMETERS 3
31		! 1 Logical unit for building description file (*.b18, *.b17, *.bui)
0		! 2 Star network calculation switch
0.50		! 3 Weighting factor for operative temperature
INPUTS 78
15,1 		! Weather:Dry bulb temperature -> 1- TAMB
15,7 		! Weather:Percent relative humidity -> 2- RELHUMAMB
15,4 		! Weather:Effective sky temperature -> 3- TSKY
15,1 		! Weather:Dry bulb temperature -> 4- TSGRD
15,16 		! Weather:Solar zenith angle -> 5- AZEN
AAZM_TYPE56		! Radiation Unit Converter:AAZM_TYPE56 -> 6- AAZM
15,99 		! Weather:Ground reflectance -> 7- GRDREF
77,1 		! Type77:Soil Temperature at Node  -> 8- TGROUND
TBOUNDARY		! Wizard Settings:TBOUNDARY -> 9- TBOUNDARY
SHADE_CLOSE		! Wizard Settings:SHADE_CLOSE -> 10- SHADE_CLOSE
SHADE_OPEN		! Wizard Settings:SHADE_OPEN -> 11- SHADE_OPEN
MAX_ISHADE		! Wizard Settings:MAX_ISHADE -> 12- MAX_ISHADE
MAX_ESHADE		! Wizard Settings:MAX_ESHADE -> 13- MAX_ESHADE
0,0		! [unconnected]  14- CLO
0,0		! [unconnected]  15- MET
0,0		! [unconnected]  16- SP_Heating_Ideal
28,9 		! vent:Fresh Air Flowrate  -> 17- VENT_AF_KGperH
28,6 		! vent:Fresh Air Temperature -> 18- VENT_Tsup_C
28,7 		! vent:Fresh Air Humidity Ratio -> 19- VENT_absolute_hum_KGperKG
16,1 		! Inf:Infiltration air changes -> 20- INF_1perH
0,0		! [unconnected]  21- OCC_Yearly
0,0		! [unconnected]  22- LTG_Weekly
0,0		! [unconnected]  23- LTG_Yearly
0,0		! [unconnected]  24- DEV_Weekly
0,0		! [unconnected]  25- DEV_Yearly
0,0		! [unconnected]  26- SP_Cooling_Ideal
82,2 		! Occ:Instantaneous number of occupants -> 27- OCC_S1NP_Weekly
82,2 		! Occ:Instantaneous number of occupants -> 28- OCC_N1NP_Weekly
82,2 		! Occ:Instantaneous number of occupants -> 29- OCC_S2NP_Weekly
82,2 		! Occ:Instantaneous number of occupants -> 30- OCC_N2NP_Weekly
58,1 		! Type647:Outlet Temperature-1 -> 31- S1NP_s1_Tw_in
58,2 		! Type647:Outlet Flowrate-1 -> 32- S1NP_s1_Mw_in
58,3 		! Type647:Outlet Temperature-2 -> 33- S1NP_s2_Tw_in
58,4 		! Type647:Outlet Flowrate-2 -> 34- S1NP_s2_Mw_in
58,5 		! Type647:Outlet Temperature-3 -> 35- S1NP_s3_Tw_in
58,6 		! Type647:Outlet Flowrate-3 -> 36- S1NP_s3_Mw_in
58,7 		! Type647:Outlet Temperature-4 -> 37- S1NP_s4_Tw_in
58,8 		! Type647:Outlet Flowrate-4 -> 38- S1NP_s4_Mw_in
58,9 		! Type647:Outlet Temperature-5 -> 39- S1NP_s5_Tw_in
58,10 		! Type647:Outlet Flowrate-5 -> 40- S1NP_s5_Mw_in
58,11 		! Type647:Outlet Temperature-6 -> 41- S1NP_s6_Tw_in
58,12 		! Type647:Outlet Flowrate-6 -> 42- S1NP_s6_Mw_in
58,13 		! Type647:Outlet Temperature-7 -> 43- S2NP_s1_Tw_in
58,14 		! Type647:Outlet Flowrate-7 -> 44- S2NP_s1_Mw_in
58,15 		! Type647:Outlet Temperature-8 -> 45- S2NP_s2_Tw_in
58,16 		! Type647:Outlet Flowrate-8 -> 46- S2NP_s2_Mw_in
58,17 		! Type647:Outlet Temperature-9 -> 47- S2NP_s3_Tw_in
58,18 		! Type647:Outlet Flowrate-9 -> 48- S2NP_s3_Mw_in
58,19 		! Type647:Outlet Temperature-10 -> 49- S2NP_s4_Tw_in
58,20 		! Type647:Outlet Flowrate-10 -> 50- S2NP_s4_Mw_in
58,21 		! Type647:Outlet Temperature-11 -> 51- S2NP_s5_Tw_in
58,22 		! Type647:Outlet Flowrate-11 -> 52- S2NP_s5_Mw_in
58,23 		! Type647:Outlet Temperature-12 -> 53- S2NP_s6_Tw_in
58,24 		! Type647:Outlet Flowrate-12 -> 54- S2NP_s6_Mw_in
58,25 		! Type647:Outlet Temperature-13 -> 55- N1NP_s1_Tw_in
58,26 		! Type647:Outlet Flowrate-13 -> 56- N1NP_s1_Mw_in
58,27 		! Type647:Outlet Temperature-14 -> 57- N1NP_s2_Tw_in
58,28 		! Type647:Outlet Flowrate-14 -> 58- N1NP_s2_Mw_in
58,29 		! Type647:Outlet Temperature-15 -> 59- N1NP_s3_Tw_in
58,30 		! Type647:Outlet Flowrate-15 -> 60- N1NP_s3_Mw_in
58,31 		! Type647:Outlet Temperature-16 -> 61- N1NP_s4_Tw_in
58,32 		! Type647:Outlet Flowrate-16 -> 62- N1NP_s4_Mw_in
58,33 		! Type647:Outlet Temperature-17 -> 63- N1NP_s5_Tw_in
58,34 		! Type647:Outlet Flowrate-17 -> 64- N1NP_s5_Mw_in
58,35 		! Type647:Outlet Temperature-18 -> 65- N1NP_s6_Tw_in
58,36 		! Type647:Outlet Flowrate-18 -> 66- N1NP_s6_Mw_in
58,37 		! Type647:Outlet Temperature-19 -> 67- N2NP_s1_Tw_in
58,38 		! Type647:Outlet Flowrate-19 -> 68- N2NP_s1_Mw_in
58,39 		! Type647:Outlet Temperature-20 -> 69- N2NP_s2_Tw_in
58,40 		! Type647:Outlet Flowrate-20 -> 70- N2NP_s2_Mw_in
58,41 		! Type647:Outlet Temperature-21 -> 71- N2NP_s3_Tw_in
58,42 		! Type647:Outlet Flowrate-21 -> 72- N2NP_s3_Mw_in
58,43 		! Type647:Outlet Temperature-22 -> 73- N2NP_s4_Tw_in
58,44 		! Type647:Outlet Flowrate-22 -> 74- N2NP_s4_Mw_in
58,45 		! Type647:Outlet Temperature-23 -> 75- N2NP_s5_Tw_in
58,46 		! Type647:Outlet Flowrate-23 -> 76- N2NP_s5_Mw_in
58,47 		! Type647:Outlet Temperature-24 -> 77- N2NP_s6_Tw_in
58,48 		! Type647:Outlet Flowrate-24 -> 78- N2NP_s6_Mw_in
*** INITIAL INPUT VALUES
0 0 0 0 0 0 0 0 0 0 0 0 0 0.5 1 -100 0 21 0.008 0.3 1 1 1 0.7 1 100 1 1 1 1 0 0 0 0 0 0 0 0 0 0 0 0 0 0
0 0 0 0 0 0 0 0 0 0 0 0 0 0 0 0 0 0 0 0 0 0 0 0 0 0 0 0 0 0 0 0 0 0 
*** External files
ASSIGN "BuiFiles\Building_V4.b18" 31
*|? Building description file (*.b18, *.b17, *.bui) |1000
*------------------------------------------------------------------------------

* Model "Type551a" (Type 551)
* 

UNIT 64 TYPE 551	 Type551a
*$UNIT_NAME Type551a
*$MODEL .\Electrical Library (TESS)\Photovoltaic Array Shading\Generally Horizontal Field\Type551a.tmf
*$POSITION 191 1476
*$LAYER Main # 
PARAMETERS 7
1		! 1 Array Configuration
1.048		! 2 Row Height
20		! 3 Row Width
15		! 4 Row Slope
1.4		! 5 Row Separation
-11		! 6 Array Azimuth
0		! 7 Field Slope
INPUTS 8
15,53 		! Weather:Total diffuse radiation for surface-6 ->Diffuse Radiation on Array Slope
15,35 		! Weather:Beam radiation for surface-6 ->Beam Radiation on Array Slope
15,16 		! Weather:Solar zenith angle ->Solar Zenith Angle
15,17 		! Weather:Solar azimuth angle ->Solar Azimuth Angle
15,18 		! Weather:Total horizontal radiation ->Total Horizontal Radiation
15,22 		! Weather:Total diffuse radiation on the horizontal ->Diffuse Horizontal Radiation
15,19 		! Weather:Horizontal beam radiation ->Beam Radiation on Field Slope
0,0		! [unconnected] Ground Reflectance
*** INITIAL INPUT VALUES
0 0 0 0 0 0 0 0.2 
*------------------------------------------------------------------------------

* Model "pole1" (Type 103)
* 

UNIT 69 TYPE 103	 pole1
*$UNIT_NAME pole1
*$MODEL .\Electrical\Photovoltaic Panels\Basic Model\with MPPT\Type103b.tmf
*$POSITION 342 1480
*$LAYER Main # 
PARAMETERS 14
1		! 1 MPPT mode
11.24		! 2 Module short-circuit current at reference conditions
50.20		! 3 Module open-circuit voltage at reference conditions
25		! 4 Reference cell temperature
1000		! 5 Reference insolation
42.40		! 6 Module voltage at max power point and reference conditions
10.73		! 7 Module current at max power point and reference conditions
-0.0067		! 8 Temperature coefficient of Isc (ref. cond)
-0.1506		! 9 Temperature coefficient of Voc (ref. cond.)
144		! 10 Number of cells wired in series
45		! 11 Module temperature at NOCT
2.209		! 12 Module area
112		! 13 Number of modules in series
1		! 14 Number of modules in parallel
INPUTS 6
15,1 		! Weather:Dry bulb temperature ->Ambient temperature
64,8 		! Type551a:Conservatively Shaded Beam Radiation ->Beam radiation
64,9 		! Type551a:Conservatively Shaded Diffuse Radiation ->Sky diffuse radiation
0,0		! [unconnected] Ground reflected diffuse radiation
15,65 		! Weather:Slope of surface-6 ->Array slope
15,59 		! Weather:Angle of incidence for surface-6 ->Incidence angle of beam radiation
*** INITIAL INPUT VALUES
25 0 0 0 0 0 
*------------------------------------------------------------------------------

* Model "T_Plotter" (Type 65)
* 

UNIT 66 TYPE 65	 T_Plotter
*$UNIT_NAME T_Plotter
*$MODEL .\Output\Online Plotter\Online Plotter Without File\Type65d.tmf
*$POSITION 1684 1236
*$LAYER Main # # 
PARAMETERS 12
10		! 1 Nb. of left-axis variables
10		! 2 Nb. of right-axis variables
-30.0		! 3 Left axis minimum
80.0		! 4 Left axis maximum
-30.0		! 5 Right axis minimum
80.0		! 6 Right axis maximum
1		! 7 Number of plots per simulation
12		! 8 X-axis gridpoints
-1		! 9 Shut off Online w/o removing
-1		! 10 Logical unit for output file
0		! 11 Output file units
0		! 12 Output file delimiter
INPUTS 20
15,1 		! Weather:Dry bulb temperature ->Left axis variable-1
56,2 		! Building: 2- TOP_S1NP ->Left axis variable-2
56,8 		! Building: 8- TOP_N1NP ->Left axis variable-3
56,14 		! Building: 14- TOP_S2NP ->Left axis variable-4
56,20 		! Building: 20- TOP_N2NP ->Left axis variable-5
28,6 		! vent:Fresh Air Temperature ->Left axis variable-6
54,21 		! Combi storage 2/2 (heat):Temperature at thermostat-1 ->Left axis variable-7
T_AVG		! Trep:T_AVG ->Left axis variable-8
53,21 		! Combi storage 1/2 (DHW):Temperature at thermostat-1 ->Left axis variable-9
0,0		! [unconnected] Left axis variable-10
77,1 		! Type77:Soil Temperature at Node  ->Right axis variable-1
56,1 		! Building: 1- TAIR_S1NP ->Right axis variable-2
56,7 		! Building: 7- TAIR_N1NP ->Right axis variable-3
56,13 		! Building: 13- TAIR_S2NP ->Right axis variable-4
56,19 		! Building: 19- TAIR_N2NP ->Right axis variable-5
56,33 		! Building: 33- TOFL_S4 ->Right axis variable-6
56,34 		! Building: 34- TOFL_S7 ->Right axis variable-7
56,35 		! Building: 35- TOFL_S6 ->Right axis variable-8
56,36 		! Building: 36- TOFL_S14 ->Right axis variable-9
0,0		! [unconnected] Right axis variable-10
*** INITIAL INPUT VALUES
TAMB TOP_S1NP TOP_N1NP TOP_S2NP TOP_N2NP Fresh HT_tank T_AVG DHW_tank
T_Source TGROUND TAIR_S1NP TAIR_N1NP TAIR_S2NP TAIR_N2NP TOFL_S4 TOFL_S7
TOFL_S6 TOFL_S14 label 
LABELS  3
"Operative  Temperature"
"Air  Temperature"
"T_Plotter"
*------------------------------------------------------------------------------

* EQUATIONS "Wizard Settings"
* 
EQUATIONS 12
HEMISPHERE = 1      ! hemisphere of weather data location (northern hemisphere: 1, southern hemisphere: -1)
TURN = HEMISPHERE * 0     ! rotation angle of scene (building & shaders) used for adapting azimuth angles
TBOUNDARY = 20      ! boundary temperature of surfaces (used by Type 56 - Multizone Building Model)
SHADE_CLOSE = 140 * 3.6      ! Close blinds - radiation on facade in [W/m2 * 3.6]=[kJ/hr] (used by Type 56 - Multizone Building Model)
SHADE_OPEN = 120 * 3.6      ! Open blinds - radiation on facade in [W/m2 * 3.6]=[kJ/hr] (used by Type 56 - Multizone Building Model)
MAX_ISHADE = 70/100      ! Maximum opaque fraction of internal shading device (used by Type 56 - Multizone Building Model)
MAX_ESHADE = 70/100      ! Maximum opaque fraction of external shading device (used by Type 56 - Multizone Building Model)
h_DEPTH = 1      ! ground temperature depth [m](used by Type 77 - Simple Ground Temperature Model)
T_MEAN = 7.9        ! mean annual ambient temperaure [C] (used by Type 77 - Simple Ground Temperature Model)
T_AMPLITUDE = 9.7      ! max. annual amplitude of ambient temperature [C] (used by Type 77 - Simple Ground Temperature Model)
t_T_MIN = 14      ! time shift of min. annual temperature [C] (used by Type 77 - Simple Ground Temperature Model)
WindDir = MOD([15,9]+TURN/HEMISPHERE,360) + LT([15,9]+TURN/HEMISPHERE,0)*(360)      ! wind direction corrected by scene rotation angle (0...360 deg)
*$UNIT_NAME Wizard Settings
*$LAYER Main
*$POSITION 85 331
*$UNIT_NUMBER 1

*------------------------------------------------------------------------------


* EQUATIONS "COR"
* 
EQUATIONS 1
output = gt([40,1],0)*[40,1]
*$UNIT_NAME COR
*$LAYER Main
*$POSITION 836 1138
*$UNIT_NUMBER 39

*------------------------------------------------------------------------------


* EQUATIONS "El_consum"
* 
EQUATIONS 3
Kons_HP_sys_kJ_h = [52,9]+[34,3]+[49,3]
Kons_Other_kJ_h = [61,5]+[61,10]
Kons_TOT_kJ_h = [52,9]+[34,3]+[61,5]+[61,10]+[49,3]
*$UNIT_NAME El_consum
*$LAYER Main
*$POSITION 350 1381
*$UNIT_NUMBER 62

*------------------------------------------------------------------------------
